    6
 Structure number:           804
  C       -0.614875254    -0.534925461     0.292597297
  N        0.178524749     0.383542530     0.642671953
  H       -0.419308770    -0.908892530    -0.802108863
  H       -1.443157520    -0.821207407     0.751110480
  H        0.095022059     0.750288677     1.588604497
  H        1.078642511     0.488830145     0.084479419
